[General]
network = inet.examples.ieee802_1d.test.threeSw
sim-time-limit = 80s
**.scalar-recording = false
record-eventlog = true
**.vector-recording = true
**.testing = true

**.withMvrp = false

**.server_switch.**.address = "000000000001"
**.access1.**.address = "000000000002"
**.access2.**.address = "000000000003"
**.access1.PortFilt[2].tagged = false
**.access1.PortFilt[2].defaultVID = 33
**.access2.PortFilt[2].tagged = false
**.access2.PortFilt[2].defaultVID = 33
**.server_switch.PortFilt[2].tagged = false
**.server_switch.PortFilt[2].defaultVID= 33
**.CSsrc1.linklayer.outputFrame = 0
**.CSsrc2.linklayer.outputFrame = 0
**.DBserver.linklayer.outputFrame = 0
**.agingTime=50s
**.rstp.migrateTime = 0.5s
**.rstp.forwardDelay = 2s
**.verbose = true
**.CSsrc1.application.startTime =15s
**.CSsrc2.application.startTime =15s
#**.CSsrc3.application.startTime =30s
**.CSsrc1.mac.duplexMode = false
**.CSsrc2.mac.duplexMode = false
#**.CSsrc3.mac.duplexMode = false
**.CSsrc2.application.waitTime = uniform(0.7s,1s)
**.CSsrc1.application.waitTime = uniform(0.5s,1s)

**.CSsrc1.application.destAddress = "DBserver"

**.DBserver.application.endToEndDelay.result-recording-modes =+last,vector
**.channel.throughput.result-recording-modes=+last,vector
#output-vector-file=<threeSw>, default:${resultdir}/${configname}-${runnumber}.vec; 

